 # Fcc SiC alloy oriented X=[10-1] Y=[010] Z=[101].
 CRYSTAL
 PRIMVEC
      2.54346309        0.00000000        0.00000000
      0.00000000        3.59700000        0.00000000
      0.00000000        0.00000000        2.54346309
 CONVVEC
      2.54346309        0.00000000        0.00000000
      0.00000000        3.59700000        0.00000000
      0.00000000        0.00000000        2.54346309
 PRIMCOORD
        2 1
14        0.00000000        0.00000000        0.00000000
14        1.27173155        1.79850000        1.27173155
